LAMMPS (4 Feb 2025)
# LAMMPS script for continuing NVT simulation

atom_modify map yes
newton      on

read_restart nvt_prod.restart.1120000
Reading restart file ...
  restart file = 4 Feb 2025, LAMMPS = 4 Feb 2025
  restoring atom style full from restart
  orthogonal box = (0 0 0) to (154.008 148.2 151.07609)
  pair style symmetrix/mace stores no restart info
  11640 atoms
Finding 1-2 1-3 1-4 neighbors ...
     0 = max # of 1-2 neighbors
     0 = max # of 1-3 neighbors
     0 = max # of 1-4 neighbors
     1 = max # of special neighbors
  read_restart CPU = 5.110 seconds

pair_style  symmetrix/mace
pair_coeff  * * ../../../../00-common/models/ch2o-dens-inv_swa-1-6-8.json C H O
Loading MACE model from '../../../../00-common/models/ch2o-dens-inv_swa-1-6-8.json' ... success
  mapping LAMMPS type 1 (C) to MACE type 1
  mapping LAMMPS type 2 (H) to MACE type 0
  mapping LAMMPS type 3 (O) to MACE type 2

group graphene type 1
8640 atoms in group graphene
group H2O type 2 3
3000 atoms in group H2O

thermo 1000

######### NVT production for 80 ps #############

dump DUMP1 all atom 100 nvt_prod_14.lammpstrj
timestep 0.001
fix NVT1 graphene nvt temp 300 300 0.1
  fix style: nvt, fix ID: NVT1
fix NVT2 H2O nvt temp 300 300 0.1
  fix style: nvt, fix ID: NVT2
run 80000
All restart file global fix info was re-assigned
Step          Temp          E_pair         E_mol          TotEng         Press
1120000   300.17071     -1809869.3      0             -1809417.7      46.318646
Averages over the last 41 of 81 rows, steps 1160000 to 1200000:
Temp E_pair E_mol TotEng Press
300.066 -1.80988e+06 0 -1.80943e+06 21.1691
Loop time of 47280.1 on 1408 procs for 80000 steps with 11640 atoms

write_restart nvt_prod.restart.*
System init for write_restart ...
write_data nvt_prod_final.lammps-data
System init for write_data ...
