LAMMPS (4 Feb 2025)
# LAMMPS script for running NVT simulation

units       metal
dimension   3
boundary    p p p
atom_style  full
atom_modify map yes

newton      on

read_data   ../equi_final.lammps-data
Reading data file ...
  orthogonal box = (0 0 0) to (38.502 37.05 100)
  reading atoms ...
  4050 atoms
  reading velocities ...
  4050 velocities
Finding 1-2 1-3 1-4 neighbors ...
     0 = max # of 1-2 neighbors
     0 = max # of 1-3 neighbors
     0 = max # of 1-4 neighbors
     1 = max # of special neighbors

pair_style  symmetrix/mace
pair_coeff  * * ../../../../00-common/models/ch2o-dens-inv_swa-1-6-8.json C H O
Loading MACE model from '../../../../00-common/models/ch2o-dens-inv_swa-1-6-8.json' ... success
  mapping LAMMPS type 1 (C) to MACE type 1
  mapping LAMMPS type 2 (H) to MACE type 0
  mapping LAMMPS type 3 (O) to MACE type 2

variable t equal step

group graphene type 1
540 atoms in group graphene
group H2O type 2 3
3510 atoms in group H2O

thermo 1000

######### NVT production for 200 ps #############

dump DUMP1 all atom 200 nvt_prod_snapshots.lammpstrj
timestep 0.001
fix NVT1 graphene nvt temp 300 300 0.1
fix NVT2 H2O nvt temp 300 300 0.1
run 200000
Step          Temp          E_pair         E_mol          TotEng         Press
0   297.32079     -633267.47      0             -633111.86     -470.56531
Averages over the last 101 of 201 rows, steps 100000 to 200000:
Temp E_pair E_mol TotEng Press
300.077 -633268 0 -633111 40.5657
Loop time of 17219.2 on 1024 procs for 200000 steps with 4050 atoms

write_restart nvt_prod.restart.*
System init for write_restart ...
write_data nvt_prod_final.lammps-data
System init for write_data ...
