LAMMPS (4 Feb 2025)
# LAMMPS script for continuing NVT simulation

atom_modify map yes
newton      on

read_restart nvt_prod.restart.100000
Reading restart file ...
  restart file = 4 Feb 2025, LAMMPS = 4 Feb 2025
  restoring atom style full from restart
  orthogonal box = (0 0 0) to (154.008 148.2 151.07609)
  pair style symmetrix/mace stores no restart info
  8640 atoms
Finding 1-2 1-3 1-4 neighbors ...
     0 = max # of 1-2 neighbors
     0 = max # of 1-3 neighbors
     0 = max # of 1-4 neighbors
     1 = max # of special neighbors
  read_restart CPU = 2.804 seconds

pair_style  symmetrix/mace
pair_coeff  * * ../../../00-common/models/ch2o-dens-inv_swa-1-6-8.json C
Loading MACE model from '../../../00-common/models/ch2o-dens-inv_swa-1-6-8.json' ... success
  mapping LAMMPS type 1 (C) to MACE type 1

thermo 1000

######### NVT production for 200 ps #############

dump DUMP1 all atom 100 nvt_prod_1.lammpstrj
timestep 0.001
fix NVT1 all nvt temp 300 300 0.1
run 200000
Unused restart file global fix info:
  fix style: nvt, fix ID: NVT2
Step          Temp          E_pair         E_mol          TotEng         Press
100000   302.79907     -1340238        0             -1339899.9      81.894305
Averages over the last 101 of 201 rows, steps 200000 to 300000:
Temp E_pair E_mol TotEng Press
299.857 -1.34024e+06 0 -1.3399e+06 62.8025
Loop time of 40615.2 on 768 procs for 200000 steps with 8640 atoms

write_restart nvt_prod.restart.*
System init for write_restart ...
write_data nvt_prod_final.lammps-data
System init for write_data ...
